tests/data/power_flow/pandapower/components/asymmetric/pandapower-asymmetric-line/asym_output.json
{
  "line": [
    {
      "id": 3,
      "p_from": [
        3346.57481494105,
        3346.5748149410524,
        3346.574814941046
      ],
      "q_from": [
        -45522.88059500142,
        -45522.880595001414,
        -45522.880595001414
      ],
      "i_from": [
        7.529591908174013,
        7.529591908174012,
        7.529591908174012
      ],
      "p_to": [
        -3335.749792569181,
        -3335.7497925691837,
        -3335.7497925691837
      ],
      "q_to": [
        33983.95217419129,
        33983.95217419129,
        33983.95217419129
      ],
      "i_to": [
        5.631748839239924,
        5.631748839239925,
        5.631748839239924
      ]
    },
    {
      "id": 6,
      "p_from": [
        3335.522998245504,
        3335.5229982455035,
        3335.5229982455025
      ],
      "q_from": [
        -22433.946877554623,
        -22433.94687755462,
        -22433.94687755462
      ],
      "i_from": [
        3.740597506855328,
        3.7405975068553277,
        3.7405975068553277
      ],
      "p_to": [
        -3333.5601586226703,
        -3333.560158622669,
        -3333.5601586226685
      ],
      "q_to": [
        10884.908400691613,
        10884.908400691613,
        10884.908400691611
      ],
      "i_to": [
        1.8773703214629625,
        1.8773703214629625,
        1.8773703214629616
      ]
    },
    {
      "id": 7,
      "p_from": [
        0.2267945227165256,
        0.22679452271665274,
        0.22679452271665274
      ],
      "q_from": [
        -11550.005296466165,
        -11550.005296466165,
        -11550.005296466165
      ],
      "i_from": [
        1.9048879694633376,
        1.9048879694633374,
        1.9048879694633374
      ],
      "p_to": [
        -1.4218711657912315e-08,
        -1.4218711657912315e-08,
        -1.4218711657912311e-08
      ],
      "q_to": [
        -1.4209391859698516e-08,
        -1.4209391859698514e-08,
        -1.4209391859698512e-08
      ],
      "i_to": [
        3.315175510578024e-12,
        3.315175510578024e-12,
        3.315175510578024e-12
      ]
    },
    {
      "id": 8,
      "p_from": [
        1.4221545258098376e-08,
        1.4221545258098376e-08,
        1.4221545258098373e-08
      ],
      "q_from": [
        1.4208488567078116e-08,
        1.4208488567078113e-08,
        1.4208488567078115e-08
      ],
      "i_from": [
        3.3151755105780235e-12,
        3.315175510578023e-12,
        3.315175510578023e-12
      ],
      "p_to": [
        0.22682531300694397,
        0.226825313006897,
        0.226825313006897
      ],
      "q_to": [
        -11551.575067323756,
        -11551.57506732375,
        -11551.575067323754
      ],
      "i_to": [
        1.9050174125247001,
        1.9050174125247,
        1.9050174125247
      ]
    }
  ],
  "node": [
    {
      "id": 1,
      "u_pu": [
        1.0,
        0.9999999999999999,
        0.9999999999999999
      ],
      "u": [
        6062.177826491071,
        6062.17782649107,
        6062.17782649107
      ],
      "u_angle": [
        -6.407135007947588e-33,
        -2.0943951023931953,
        2.0943951023931953
      ]
    },
    {
      "id": 2,
      "u_pu": [
        1.0001936034695873,
        1.0001936034695873,
        1.0001936034695873
      ],
      "u": [
        6063.351485151535,
        6063.351485151535,
        6063.351485151535
      ],
      "u_angle": [
        -0.00028856634027508906,
        -2.0946836687334702,
        2.0941065360529203
      ]
    },
    {
      "id": 5,
      "u_pu": [
        1.0002615697325472,
        1.0002615697325472,
        1.0002615697325472
      ],
      "u": [
        6063.7635087237995,
        6063.7635087237995,
        6063.7635087237995
      ],
      "u_angle": [
        -0.00041998578979774,
        -2.094815088182993,
        2.0939751166033975
      ]
    }
  ],
  "sym_load": [
    {
      "id": 9,
      "p": [
        3333.3333333333335,
        3333.3333333333335,
        3333.3333333333335
      ],
      "q": [
        666.6666666666666,
        666.6666666666666,
        666.6666666666666
      ]
    }
  ]
}